LTspice 26.0.2 for Windows
Circuit: C:\gamma-spectrometer\review\sim\sh_gbw.cir
Start Time: Mon Jun 15 20:27:46 2026

.step gbw=13000000
solver = Normal
Maximum thread count: 12
tnom = 27
temp = 27
method = trap
Direct Newton iteration succeeded in finding operating point.

.step gbw=2000000000
Direct Newton iteration succeeded in finding operating point.
Total elapsed time: 0.064 seconds.

Files loaded:
C:\gamma-spectrometer\review\sim\sh_gbw.cir


Measurement: bl_adc
  step	AVG(V(adc_in)  )	FROM	TO
     1	2.114610672	2e-07	4e-07
     2	2.114610672	2e-07	4e-07

Measurement: adc_min
  step	MIN(V(adc_in)  )	FROM	TO
     1	1.76702916622	5e-07	4e-06
     2	1.75397181511	5e-07	4e-06

Measurement: bl_amp
  step	AVG(V(amp_out) )	FROM	TO
     1	0	2e-07	4e-07
     2	0	2e-07	4e-07

Measurement: amp_min
  step	MIN(V(amp_out) )	FROM	TO
     1	-0.431154072285	5e-07	4e-06
     2	-0.430603921413	5e-07	4e-06
