LTspice 26.0.2 for Windows
Circuit: C:\gamma-spectrometer\review\sim\sh_pulse.cir
Start Time: Mon Jun 15 20:30:50 2026
solver = Normal
Maximum thread count: 12
tnom = 27
temp = 27
method = trap
Direct Newton iteration succeeded in finding operating point.
Total elapsed time: 0.045 seconds.

Files loaded:
C:\gamma-spectrometer\review\sim\sh_pulse.cir

